<?xml version="1.0" encoding="UTF-8"?>

<!-- generated on 2025-03-10 14:36:19.074609 by randomTrips.py UNKNOWN
<configuration>
    <net-file value="Town05.net.xml"/>
    <route-file value="Town05.rou.xml"/>
    <vehicle-class value="passenger"/>
    <fringe-factor value="50"/>
    <seed value="10"/>
    <random value="True"/>
    <validate value="True"/>
    <end value="200.0"/>
    <period value="2.0"/>
</configuration>
-->

<!-- generated on 2025-03-10 14:36:19 by Eclipse SUMO duarouter Version v1_11_0+0660-5b31f137fc6
<configuration xmlns:xsi="http://www.w3.org/2001/XMLSchema-instance" xsi:noNamespaceSchemaLocation="http://sumo.dlr.de/xsd/duarouterConfiguration.xsd">

    <input>
        <net-file value="Town05.net.xml"/>
        <route-files value="trips.trips.xml"/>
    </input>

    <output>
        <output-file value="Town05.rou.xml"/>
        <alternatives-output value="NUL"/>
    </output>

    <time>
        <begin value="0"/>
        <end value="200.0"/>
    </time>

    <report>
        <no-warnings value="true"/>
        <ignore-errors value="true"/>
        <no-step-log value="true"/>
    </report>

</configuration>
-->

<routes xmlns:xsi="http://www.w3.org/2001/XMLSchema-instance" xsi:noNamespaceSchemaLocation="http://sumo.dlr.de/xsd/routes_file.xsd">
    <vType id="passenger" vClass="passenger"/>
    <vehicle id="0" type="vehicle.citroen.c3" depart="0.00">
        <route edges="-29.0.00 25.0.00 15.0.00 13.0.00"/>
    </vehicle>
    <vehicle id="1" type="vehicle.audi.tt" depart="2.00">
        <route edges="-39.0.00 -0.0.00 -1.0.00 -2.0.00 -3.0.00 10.0.00 9.0.00"/>
    </vehicle>
    <vehicle id="2" type="vehicle.mustang.mustang" depart="4.00">
        <route edges="28.0.00 27.0.00 -38.0.00 -13.0.00 -14.0.00 -16.0.00 -26.0.00 -21.0.00 -22.0.00 -23.0.00 -43.0.00"/>
    </vehicle>
    <vehicle id="3" type="vehicle.jeep.wrangler_rubicon" depart="6.00">
        <route edges="44.0.00 2.0.00 1.0.00 0.0.00 25.0.00 15.0.00 13.0.00 35.0.00 -27.0.00"/>
    </vehicle>
    <vehicle id="4" type="vehicle.nissan.patrol" depart="8.00">
        <route edges="3.0.00 2.0.00 1.0.00 0.0.00 39.0.00 31.0.00"/>
    </vehicle>
    <vehicle id="5" type="vehicle.nissan.micra" depart="10.00">
        <route edges="-52.0.00 1.0.00 0.0.00 39.0.00 -48.0.00"/>
    </vehicle>
    <vehicle id="6" type="vehicle.audi.a2" depart="12.00">
        <route edges="3.0.00 -44.0.00 8.0.00 -5.0.00"/>
    </vehicle>
    <vehicle id="7" type="vehicle.mercedes-benz.coupe" depart="14.00">
        <route edges="-45.0.00 -4.0.00 -5.0.00 -2.0.00 43.0.00 42.0.00"/>
    </vehicle>
    <vehicle id="8" type="vehicle.nissan.patrol" depart="16.00">
        <route edges="-39.0.00 25.0.00 15.0.00 13.0.00 -36.0.00"/>
    </vehicle>
    <vehicle id="9" type="vehicle.bmw.grandtourer" depart="18.00">
        <route edges="-9.0.00 -10.0.00 3.0.00 -44.0.00"/>
    </vehicle>
    <vehicle id="10" type="vehicle.nissan.patrol" depart="20.00">
        <route edges="31.0.00 -21.0.00 40.0.00 0.0.00 -26.0.00"/>
    </vehicle>
    <vehicle id="11" type="vehicle.mercedes-benz.coupe" depart="22.00">
        <route edges="46.0.00 -4.0.00 -5.0.00 -50.0.00 22.0.00 21.0.00 28.0.00 27.0.00"/>
    </vehicle>
    <vehicle id="12" type="vehicle.nissan.patrol" depart="24.00">
        <route edges="-36.0.00 -27.0.00 -28.0.00 -30.0.00 -39.0.00 -26.0.00"/>
    </vehicle>
    <vehicle id="13" type="vehicle.nissan.micra" depart="26.00">
        <route edges="-48.0.00 -20.0.00 -28.0.00 -21.0.00 -22.0.00 -23.0.00 42.0.00"/>
    </vehicle>
    <vehicle id="14" type="vehicle.nissan.micra" depart="28.00">
        <route edges="-7.0.00 -5.0.00 1.0.00 0.0.00 39.0.00 -48.0.00 -20.0.00 -28.0.00"/>
    </vehicle>
    <vehicle id="15" type="vehicle.lincoln.mkz2017" depart="30.00">
        <route edges="-4.0.00 7.0.00 6.0.00 15.0.00 13.0.00 -36.0.00"/>
    </vehicle>
    <vehicle id="16" type="vehicle.mercedes-benz.coupe" depart="32.00">
        <route edges="25.0.00 -6.0.00 -7.0.00 -8.0.00 -9.0.00 -10.0.00 3.0.00"/>
    </vehicle>
    <vehicle id="17" type="vehicle.mini.cooperst" depart="34.00">
        <route edges="-41.0.00 -51.0.00 -23.0.00 42.0.00"/>
    </vehicle>
    <vehicle id="18" type="vehicle.jeep.wrangler_rubicon" depart="36.00">
        <route edges="-19.0.00 48.0.00 -39.0.00 -0.0.00 -1.0.00 -2.0.00 -3.0.00 10.0.00"/>
    </vehicle>
    <vehicle id="19" type="vehicle.nissan.micra" depart="38.00">
        <route edges="25.0.00 -6.0.00 -47.0.00 -18.0.00"/>
    </vehicle>
    <vehicle id="20" type="vehicle.jeep.wrangler_rubicon" depart="40.00">
        <route edges="-22.0.00 -52.0.00 49.0.00 4.0.00 45.0.00"/>
    </vehicle>
    <vehicle id="21" type="vehicle.bmw.grandtourer" depart="42.00">
        <route edges="-38.0.00 -13.0.00 -14.0.00 -16.0.00 -0.0.00 -1.0.00 49.0.00"/>
    </vehicle>
    <vehicle id="22" type="vehicle.nissan.micra" depart="44.00">
        <route edges="40.0.00 17.0.00 -7.0.00 -5.0.00"/>
    </vehicle>
    <vehicle id="23" type="vehicle.audi.tt" depart="46.00">
        <route edges="-5.0.00 1.0.00 0.0.00 25.0.00 15.0.00"/>
    </vehicle>
    <vehicle id="24" type="vehicle.lincoln.mkz2017" depart="48.00">
        <route edges="46.0.00 -4.0.00 7.0.00 6.0.00 15.0.00 13.0.00 -36.0.00"/>
    </vehicle>
    <vehicle id="25" type="vehicle.nissan.micra" depart="50.00">
        <route edges="42.0.00 -51.0.00 -52.0.00 49.0.00 7.0.00 -47.0.00"/>
    </vehicle>
    <vehicle id="26" type="vehicle.audi.tt" depart="52.00">
        <route edges="10.0.00 9.0.00 8.0.00 7.0.00 6.0.00 33.0.00 -48.0.00 -20.0.00"/>
    </vehicle>
    <vehicle id="27" type="vehicle.seat.leon" depart="54.00">
        <route edges="-52.0.00 49.0.00 -8.0.00 -45.0.00 -4.0.00"/>
    </vehicle>
    <vehicle id="28" type="vehicle.lincoln.mkz2017" depart="56.00">
        <route edges="-38.0.00 -13.0.00 -14.0.00 -16.0.00 -26.0.00 -21.0.00 40.0.00"/>
    </vehicle>
    <vehicle id="29" type="vehicle.citroen.c3" depart="58.00">
        <route edges="-20.0.00 -28.0.00 -29.0.00 25.0.00 -6.0.00 -7.0.00"/>
    </vehicle>
    <vehicle id="30" type="vehicle.mercedes-benz.coupe" depart="60.00">
        <route edges="-38.0.00 -13.0.00 -14.0.00 -6.0.00 -7.0.00"/>
    </vehicle>
    <vehicle id="31" type="vehicle.mercedes-benz.coupe" depart="62.00">
        <route edges="-42.0.00 -43.0.00 2.0.00 49.0.00"/>
    </vehicle>
    <vehicle id="32" type="vehicle.seat.leon" depart="64.00">
        <route edges="1.0.00 -18.0.00 -41.0.00 -42.0.00"/>
    </vehicle>
    <vehicle id="33" type="vehicle.jeep.wrangler_rubicon" depart="66.00">
        <route edges="-38.0.00 -13.0.00 -14.0.00 33.0.00 -39.0.00 25.0.00"/>
    </vehicle>
    <vehicle id="34" type="vehicle.bmw.grandtourer" depart="68.00">
        <route edges="-48.0.00 -20.0.00 -28.0.00 -29.0.00 39.0.00 31.0.00 28.0.00 27.0.00"/>
    </vehicle>
    <vehicle id="35" type="vehicle.lincoln.mkz2017" depart="70.00">
        <route edges="40.0.00 17.0.00 46.0.00"/>
    </vehicle>
    <vehicle id="36" type="vehicle.nissan.micra" depart="72.00">
        <route edges="-44.0.00 8.0.00 7.0.00 6.0.00 15.0.00 -19.0.00"/>
    </vehicle>
    <vehicle id="37" type="vehicle.chevrolet.impala" depart="74.00">
        <route edges="-20.0.00 -28.0.00 -29.0.00 -0.0.00 -18.0.00 21.0.00"/>
    </vehicle>
    <vehicle id="38" type="vehicle.nissan.patrol" depart="76.00">
        <route edges="22.0.00 40.0.00 -1.0.00 49.0.00"/>
    </vehicle>
    <vehicle id="39" type="vehicle.mustang.mustang" depart="78.00">
        <route edges="-39.0.00 -26.0.00 -21.0.00 -22.0.00 -23.0.00"/>
    </vehicle>
    <vehicle id="40" type="vehicle.chevrolet.impala" depart="80.00">
        <route edges="43.0.00 42.0.00"/>
    </vehicle>
    <vehicle id="41" type="vehicle.seat.leon" depart="82.00">
        <route edges="-48.0.00 -20.0.00 -28.0.00 -21.0.00 -22.0.00"/>
    </vehicle>
    <vehicle id="42" type="vehicle.nissan.micra" depart="84.00">
        <route edges="-1.0.00 -2.0.00 -3.0.00 10.0.00 9.0.00"/>
    </vehicle>
    <vehicle id="43" type="vehicle.chevrolet.impala" depart="86.00">
        <route edges="41.0.00 -22.0.00 -23.0.00"/>
    </vehicle>
    <vehicle id="44" type="vehicle.bmw.grandtourer" depart="88.00">
        <route edges="-45.0.00 -46.0.00 6.0.00 33.0.00 -39.0.00"/>
    </vehicle>
    <vehicle id="45" type="vehicle.nissan.patrol" depart="90.00">
        <route edges="-19.0.00 48.0.00 31.0.00 -21.0.00 -22.0.00 -23.0.00 -24.0.00"/>
    </vehicle>
    <vehicle id="46" type="vehicle.bmw.grandtourer" depart="92.00">
        <route edges="43.0.00 23.0.00 22.0.00 21.0.00"/>
    </vehicle>
    <vehicle id="47" type="vehicle.lincoln.mkz2017" depart="94.00">
        <route edges="-30.0.00 -39.0.00 -0.0.00"/>
    </vehicle>
    <vehicle id="48" type="vehicle.citroen.c3" depart="96.00">
        <route edges="-28.0.00 -29.0.00 25.0.00 15.0.00 13.0.00 -36.0.00"/>
    </vehicle>
    <vehicle id="49" type="vehicle.jeep.wrangler_rubicon" depart="98.00">
        <route edges="6.0.00 -16.0.00 -0.0.00 -1.0.00 49.0.00 7.0.00 -47.0.00"/>
    </vehicle>
    <vehicle id="50" type="vehicle.audi.tt" depart="100.00">
        <route edges="-22.0.00 -23.0.00 -43.0.00"/>
    </vehicle>
    <vehicle id="51" type="vehicle.seat.leon" depart="102.00">
        <route edges="-43.0.00 -44.0.00 -45.0.00 -46.0.00"/>
    </vehicle>
    <vehicle id="52" type="vehicle.nissan.micra" depart="104.00">
        <route edges="25.0.00 33.0.00 -48.0.00 19.0.00"/>
    </vehicle>
    <vehicle id="53" type="vehicle.lincoln.mkz2017" depart="106.00">
        <route edges="4.0.00 -46.0.00 6.0.00 -16.0.00 -26.0.00 28.0.00 27.0.00 -38.0.00 -13.0.00"/>
    </vehicle>
    <vehicle id="54" type="vehicle.mercedes-benz.coupe" depart="108.00">
        <route edges="-30.0.00 -32.0.00 15.0.00 13.0.00 35.0.00 -27.0.00"/>
    </vehicle>
    <vehicle id="55" type="vehicle.seat.leon" depart="110.00">
        <route edges="8.0.00 -5.0.00 -50.0.00 -23.0.00"/>
    </vehicle>
    <vehicle id="56" type="vehicle.jeep.wrangler_rubicon" depart="112.00">
        <route edges="-2.0.00 -44.0.00 8.0.00 7.0.00 6.0.00 -16.0.00 -26.0.00 -21.0.00"/>
    </vehicle>
    <vehicle id="57" type="vehicle.lincoln.mkz2017" depart="114.00">
        <route edges="31.0.00 28.0.00 27.0.00 -38.0.00 -13.0.00"/>
    </vehicle>
    <vehicle id="58" type="vehicle.mustang.mustang" depart="116.00">
        <route edges="-14.0.00 -16.0.00 -0.0.00 -1.0.00 -2.0.00 43.0.00 23.0.00"/>
    </vehicle>
    <vehicle id="59" type="vehicle.mini.cooperst" depart="118.00">
        <route edges="20.0.00 48.0.00 -32.0.00 -6.0.00 -7.0.00 -8.0.00"/>
    </vehicle>
    <vehicle id="60" type="vehicle.mercedes-benz.coupe" depart="120.00">
        <route edges="-30.0.00 -48.0.00 -20.0.00 -28.0.00 -29.0.00"/>
    </vehicle>
    <vehicle id="61" type="vehicle.lincoln.mkz2017" depart="122.00">
        <route edges="-32.0.00 -6.0.00 -7.0.00 -5.0.00 -50.0.00 51.0.00 41.0.00"/>
    </vehicle>
    <vehicle id="62" type="vehicle.mustang.mustang" depart="124.00">
        <route edges="-26.0.00 -21.0.00 40.0.00 17.0.00 6.0.00 -16.0.00"/>
    </vehicle>
    <vehicle id="63" type="vehicle.jeep.wrangler_rubicon" depart="126.00">
        <route edges="-28.0.00 -29.0.00 -0.0.00 -1.0.00 -50.0.00"/>
    </vehicle>
    <vehicle id="64" type="vehicle.lincoln.mkz2017" depart="128.00">
        <route edges="-11.0.00 24.0.00 23.0.00 22.0.00 40.0.00 -1.0.00"/>
    </vehicle>
    <vehicle id="65" type="vehicle.seat.leon" depart="130.00">
        <route edges="-39.0.00 -26.0.00 28.0.00 27.0.00 -38.0.00"/>
    </vehicle>
    <vehicle id="66" type="vehicle.bmw.grandtourer" depart="132.00">
        <route edges="15.0.00 -19.0.00 48.0.00 -32.0.00 -6.0.00 -47.0.00"/>
    </vehicle>
    <vehicle id="67" type="vehicle.mini.cooperst" depart="134.00">
        <route edges="44.0.00 2.0.00 49.0.00 4.0.00 45.0.00"/>
    </vehicle>
    <vehicle id="68" type="vehicle.mini.cooperst" depart="136.00">
        <route edges="24.0.00 -43.0.00 -44.0.00"/>
    </vehicle>
    <vehicle id="69" type="vehicle.mustang.mustang" depart="138.00">
        <route edges="-23.0.00 -43.0.00 2.0.00 49.0.00 7.0.00"/>
    </vehicle>
    <vehicle id="70" type="vehicle.audi.a2" depart="140.00">
        <route edges="43.0.00 23.0.00 22.0.00 21.0.00 -30.0.00 -48.0.00 19.0.00"/>
    </vehicle>
    <vehicle id="71" type="vehicle.jeep.wrangler_rubicon" depart="142.00">
        <route edges="20.0.00 48.0.00 31.0.00 -21.0.00 40.0.00"/>
    </vehicle>
    <vehicle id="72" type="vehicle.mustang.mustang" depart="144.00">
        <route edges="-41.0.00 -42.0.00 -43.0.00 -44.0.00"/>
    </vehicle>
    <vehicle id="73" type="vehicle.mercedes-benz.coupe" depart="146.00">
        <route edges="-51.0.00 -52.0.00 1.0.00 0.0.00 -26.0.00"/>
    </vehicle>
    <vehicle id="74" type="vehicle.mustang.mustang" depart="148.00">
        <route edges="8.0.00 -5.0.00 -50.0.00 22.0.00 21.0.00 -29.0.00"/>
    </vehicle>
    <vehicle id="75" type="vehicle.mercedes-benz.coupe" depart="150.00">
        <route edges="20.0.00 48.0.00 -39.0.00 -0.0.00 -1.0.00 -2.0.00 -44.0.00"/>
    </vehicle>
    <vehicle id="76" type="vehicle.audi.a2" depart="152.00">
        <route edges="-21.0.00 -22.0.00 -52.0.00 49.0.00"/>
    </vehicle>
    <vehicle id="77" type="vehicle.jeep.wrangler_rubicon" depart="154.00">
        <route edges="-44.0.00 8.0.00 -5.0.00 -2.0.00 -3.0.00 10.0.00 9.0.00"/>
    </vehicle>
    <vehicle id="78" type="vehicle.mercedes-benz.coupe" depart="156.00">
        <route edges="-18.0.00 21.0.00 -29.0.00 25.0.00 15.0.00"/>
    </vehicle>
    <vehicle id="79" type="vehicle.nissan.patrol" depart="158.00">
        <route edges="-29.0.00 25.0.00 -6.0.00 -7.0.00 -8.0.00 -45.0.00"/>
    </vehicle>
    <vehicle id="80" type="vehicle.nissan.patrol" depart="160.00">
        <route edges="-46.0.00 -47.0.00 -18.0.00 21.0.00 -29.0.00"/>
    </vehicle>
    <vehicle id="81" type="vehicle.seat.leon" depart="162.00">
        <route edges="8.0.00 -5.0.00 -2.0.00 43.0.00"/>
    </vehicle>
    <vehicle id="82" type="vehicle.mustang.mustang" depart="164.00">
        <route edges="-42.0.00 23.0.00 22.0.00 21.0.00 -29.0.00 39.0.00 31.0.00"/>
    </vehicle>
    <vehicle id="83" type="vehicle.nissan.micra" depart="166.00">
        <route edges="17.0.00 6.0.00 -16.0.00"/>
    </vehicle>
    <vehicle id="84" type="vehicle.audi.a2" depart="168.00">
        <route edges="-7.0.00 -5.0.00 1.0.00"/>
    </vehicle>
    <vehicle id="85" type="vehicle.mini.cooperst" depart="170.00">
        <route edges="-38.0.00 -13.0.00 -14.0.00 -16.0.00 -26.0.00 -21.0.00 -41.0.00 -42.0.00"/>
    </vehicle>
    <vehicle id="86" type="vehicle.mini.cooperst" depart="172.00">
        <route edges="-5.0.00 -2.0.00 -44.0.00 -9.0.00"/>
    </vehicle>
    <vehicle id="87" type="vehicle.seat.leon" depart="174.00">
        <route edges="-7.0.00 -5.0.00 1.0.00 0.0.00"/>
    </vehicle>
    <vehicle id="88" type="vehicle.citroen.c3" depart="176.00">
        <route edges="31.0.00 -29.0.00 39.0.00"/>
    </vehicle>
    <vehicle id="89" type="vehicle.nissan.micra" depart="178.00">
        <route edges="19.0.00 13.0.00 35.0.00 -27.0.00 20.0.00"/>
    </vehicle>
    <vehicle id="90" type="vehicle.bmw.grandtourer" depart="180.00">
        <route edges="-45.0.00 -4.0.00 7.0.00"/>
    </vehicle>
    <vehicle id="91" type="vehicle.mustang.mustang" depart="182.00">
        <route edges="-29.0.00 39.0.00 -32.0.00 -16.0.00"/>
    </vehicle>
    <vehicle id="92" type="vehicle.audi.tt" depart="184.00">
        <route edges="49.0.00 7.0.00 6.0.00 15.0.00 13.0.00 35.0.00 -27.0.00 20.0.00"/>
    </vehicle>
    <vehicle id="93" type="vehicle.nissan.micra" depart="186.00">
        <route edges="-52.0.00 49.0.00 7.0.00 -47.0.00 -1.0.00 -50.0.00"/>
    </vehicle>
    <vehicle id="94" type="vehicle.chevrolet.impala" depart="188.00">
        <route edges="51.0.00 -42.0.00 -24.0.00 11.0.00 3.0.00"/>
    </vehicle>
    <vehicle id="95" type="vehicle.audi.tt" depart="190.00">
        <route edges="-22.0.00"/>
    </vehicle>
    <vehicle id="96" type="vehicle.citroen.c3" depart="192.00">
        <route edges="-42.0.00 -43.0.00 -44.0.00 -45.0.00 -4.0.00"/>
    </vehicle>
    <vehicle id="97" type="vehicle.nissan.micra" depart="194.00">
        <route edges="-50.0.00 -23.0.00 -43.0.00"/>
    </vehicle>
    <vehicle id="98" type="vehicle.lincoln.mkz2017" depart="196.00">
        <route edges="10.0.00 9.0.00 44.0.00 43.0.00 23.0.00 22.0.00 -41.0.00"/>
    </vehicle>
    <vehicle id="99" type="vehicle.jeep.wrangler_rubicon" depart="198.00">
        <route edges="-10.0.00 3.0.00 2.0.00 1.0.00 0.0.00 39.0.00 -32.0.00"/>
    </vehicle>
</routes>
